* TPS543B22
*****************************************************************************
* (C) Copyright 2023 Texas Instruments Incorporated. All rights reserved.                                            
*****************************************************************************
** This model is designed as an aid for customers of Texas Instruments.
** TI and its licensors and suppliers make no warranties, either expressed
** or implied, with respect to this model, including the warranties of 
** merchantability or fitness for a particular purpose.  The model is
** provided solely on an "as is" basis.  The entire risk as to its quality
** and performance is with the customer
*****************************************************************************
*
* This model is subject to change without notice. Texas Instruments
* Incorporated is not responsible for updating this model.
*
*****************************************************************************
*
** Released by: Texas Instruments Inc.
* Part: TPS543B22
* Date: DEC2023
* Model Type: TRANSIENT
* Simulator: PSPICE
* Simulator Version: 17.4-2019 S015
* EVM Order Number: TPS543B22EVM
* EVM Users Guide: SLUUCH6B
* Datasheet: SLVSFW2A
* Topologies Supported: Buck
*
* Model Version: Final 1.1
*
*****************************************************************************
* Updates:
* Releasing a faster sim run time model with same features and functionality
* Final 1.1
* Release to Web.
*
*****************************************************************************
*
* Model Usage Notes:
* 
* A. Features have been modeled
*	1. 	Output Voltage Setting
*	2. 	Programmable Soft-Start 
*	3. 	Frequency and Operation Mode Selection
*	4. 	Low-side FET Zero-Crossing
*	5. 	Current Sense and Positive Overcurrent Protection(OCP)
*	6. 	Low-side FET Negative Current Limit
*	7. 	Power Good
*	8. 	Over Voltage Protection(OVP)
*	9.  Under Voltage Protection(UVP)
*	10. Output Voltage Discharge
*	11. EN/VIN UVLO Protection
*	12. BOOT functionality
*
* B. Features have not been modeled
*   1. Operating Quiescent Current
*   2. Shutdown Current 
*   3. Temperature dependent characteristics
*   4. Ground Pins have been tied to 0V internally and hence model does not support Inverting 
*      topologies.
*
*****************************************************************************
**$ENCRYPTED_LIB
**$INTERFACE
*$
.subckt TPS543B22RYS_TRANS SYNC_FSEL VCC PGND_0 FB VIN_1 EN PG MSEL VDRV
+ SW BOOT GOSNS AGND PGND_1 PGND_2 PGND_3 VIN_0 
$CDNENCSTART_ADV2
17f62b1fb318c25603aeb85644ae98a5d179ef807807791f6459efacb9d7ffc37a831b146dc0f06bb1ef275619162e6d8f7ad0dc708bf15ae1a1d5bd0ae623b2
6de0bb1ae6ebbc282127b473b0236d234fe3f76ff88fd7bedc4e2db929f00e69c2cd7320d693667a61640d5bbaa14ae735539ea3af17035cf631f91cd79d1953
fcb28665ce640c3bcc2581ddc90448e9aa07e4b87e3f6e440b8333f0cf797e620cb97b2e4baa064fb435908472031f8ba190b7f80e580481281e04db3001ee10
$CDNENCFINISH_ADV2
.ends TPS543B22RYS_TRANS 
*$
.subckt TPS_INT SYNC_FSEL PGND_0 FB VIN_1 EN PGOOD MODE BP5 SW_0 SW_1 BOOT 
+ AGND PGND_1 VIN_0 
$CDNENCSTART_ADV2
17f62b1fb318c25603aeb85644ae98a5d179ef807807791f6459efacb9d7ffc37a831b146dc0f06bb1ef275619162e6d8f7ad0dc708bf15ae1a1d5bd0ae623b2
ac40ada1f5815f64f740be12af18182172ededab27e409f94ce981f275a3edcb359e3afbdb80e2bfb9527d655d38914b6f9efe6d216c633cfe1258a7ccc6ceef
525e0b156bfd7192ac04dea014e522cf94e721815e93ad5eea4e77ca0fe328a74a23f0bdbcbf79f0b1f6adf094741eec76cd0d3ea1376c8e39f9ffa27cfc9f52
b9d82b584dea7223cf206fb7abf7561a45d7708906e9525ac92c4f18fa15f0d81db7c83054ed284225508ba5b0b4183b46ca1619fbf7a6179c0b2b8d45546b11
f50d4d1cd98a6fb2a8dbe9f65e336384bcc481cc270fcb497136d4fca54f1734441583737fc54177b9cc8a84ed5d42b3394e9c649ce5ae87c481e68df8724439
6bbd41b6f0dd05945986d09b155abaaa13eebfe9e0f833a29e7a2c56503670a0caa7a06d4fa24a7a2a4f31f9cfb07dfe6b29eb5185e1f2a4ebb17714a8fdff05
76835cf1ac63349f1de63c6686cca35dd028a95cdb6692a2751b1699986610e6557bf36159a4559a90d504aec7aa5b51d0f70c235f6eabf066af0845c98a1a30
63a52593e275df19c955235c66c351020b632a493869a99d6c660b10cfdd2e271df2118f720c6fa9f4f334d6ff773285659f159d2f8a64d4d14ea020c6e65272
f50733f3fa2c8a6ab4fd3620c4689e9ef299a00af92ec501ea5936bd42210eb244e2189ef18af76c9f9e2c574bc1520022e85e1722b6c8fa9f57a490c634eedc
2a99b3e12dbedb82977140569623772cfad56601cd6e80fed255b7e592896382daab804ac3b07e2246114d53d3dba89a33695547337692ec1a20639d5e1d63d5
92e954230cd1a2604706abcf79558af9d1b116da19e27f67e06b1cdf58787bfc255cae592e0196f14958ad2250c82f6864dd8ea929d6a609702244764e2361d8
2942c537d13815936646b1aa8d03278490a9f754f792b161ea1ce0213c4d3d96e368e9ed84936dc7a11c3ec9853fa8293aa1683a9ea6e6330699e2e6adcb0401
c2b8e6a162647250a5cfb41f7f6426b0d1b116da19e27f67e06b1cdf58787bfc255cae592e0196f14958ad2250c82f6864dd8ea929d6a609702244764e2361d8
016bea07f2434d628253e4a99df1813d7ea55ceb669ea0320987f59b19768783daab804ac3b07e2246114d53d3dba89a33695547337692ec1a20639d5e1d63d5
300b1c925beebbd673015adecfc6a699e2f6fe4f14c5ce0046a587168269858109994e646f574c08828702078fd9160c83404a364cc432274fb0079a2e347b5d
c6baa4641f5fd3509ae45f5ff544e004ec9ceca50458429ca5b41b761bb64084f87cf157111f6228896285aa3cb9a33020adc00df419ae229fe2973ef665aa85
00f26043c67671e07c47c4c8c7ef6a9293fda5731979294143faea38d0ffc7452ae4fab731996ac9f7c2bdae48fc271647f812400f1818668f6f41feaad5e4e1
d7934b39b3c48ff9e4680e0f8dd675638158fa53ac965e7ba9353909c806a44b3d0a59643f35b2777936a9982581a93a4e1772336923de0d9bc4609b23d9ccf5
183cee42588b6ad598a16032c9b23a4ddf3ff9cb1478a773b0be4ece435c3701640072abbe5c52c8b7c3c6f066fe5acb7b15f04e90752404a48e82d459102438
7d66ab21f8f9d6348554626c345f7d60c5cabb1e41fa0ae73b20a84b2ebeb96073868bc35516f2ba008c85256e06402f0b1f0e300be750a4f5d016e0c74ef76c
9759764226806d897d63cc5d3070d02c8579b12083e247056405beb41fdf9b85d0efb4d159fb61ab8e5a36bdcb614e0eddc516c043c2e189cdb26440449a3024
2e1a9b2bbde454ce074f202215712d8d504a5aeb0c193056c091600d32e4c12b7563f90f3e61ae7b1a71ef7e7f697e3201d6427f5954146a9fe42ab5babacf37
dddf3d903402445276a236ab0c38fbcb27955001afd69c9bfcb5951bc358fa77eae120e21a7b8212f995bea9ed65dd2d0e3252940cc15fee77b95a2c1995bb08
d1923c0c767db567982c24f1695584467e57426f5f0db6a072ca41e0aac63a340cb97b2e4baa064fb435908472031f8ba190b7f80e580481281e04db3001ee10
f5314dbc5af7f4f027c402ae9abda9f7e9c7b5f16e398a359b7ea0507bd4921b183cee42588b6ad598a16032c9b23a4d0a208d331cc311d7e6480ff5a4f50733
900b547a677926a20b478a437c3c77efdaab804ac3b07e2246114d53d3dba89a71caf120339b6d500fdc960bdaf500b2e034cb7e7e7d9463e8c3320469393744
00eb67350ba27ce9ddceb3734e0b051f6291d22fe75fb6034839cc97cb605dc9624ff41022d5be3056fab1b30795ed032f853de04c64403633ae3a5672b40c55
ca64bb2ff83649572090a65ae3775b5bd529a1e7691e954f336554661aea3cddb36eb56a2d05e04f7d0cb169409ab94abf2a989a2afc1004e4df51ce62646a9b
3906bbf5a3d3ee1ff156c2ffb06eb72e21b4c1c74cc0a4c46a95713354e1cef3d1b116da19e27f67e06b1cdf58787bfc1fc6c1b976347e8063073390d01074e8
d17aa18c0e1c6b5354af2126aa28f2d77e4bf19f2d84191142585473dc6f66d871bf1cf3e34cccf511f6417edacf6321277ee7c85446d507ca12ad95a0e150c9
77b6106d6259f12dcaca631cdd5fb6eed0f7dffe577985f8c3e34998ce59b444b7f739621edb049569089974b29e2e6ac700679b7c2bbbf4e3a3dc5de69a9d38
4caee36f68bb346ac9b3958b48008202db329056037fd85ce29487befcc74b8f89793813e413036a10aba9441cdb5edfc700679b7c2bbbf4e3a3dc5de69a9d38
89bf137b50241866e4824abae5550137efa6319975e9b21cfb27fd594708e8d28bd9ebd6e21c58032586ecdc03c3e7dd435ec8741378002c195e0931d9a06ff7
5cb2de6105b5f92bd0d8e2adf39adb69e74b0afd0b7c90c749bba87f3f50cc1903c6f3250cfb05ee19fc8f9b5f8d4bf12e2b20d73589da6e215f241d34256481
1b52002d6e0298098e2fc5699c37c5d07c454464f575f87ad8d010e81618c4fd72ededab27e409f94ce981f275a3edcbdc7aacaf53e7d8d1d9e3ae43ac46381f
4bf2cb83ce447cd619577e63db96e57fe8da3738ac5df10727c23267174fe61a25808373b8c45430c81d31523bd7a19389d7019099bfdb05b09803fc3b0179df
96036f1cd2ae6ea4d416c42936abc4eb9bb90cd9b8ed4fc13311977a85ec0dfbcce7b318419dfd60590b4da04cae1afd20adc00df419ae229fe2973ef665aa85
cc37f368f716dd9210e81f9b0802c8397309873aa91b4b0cdf186af5331663e137ebe6d248f02612ac8afe04b810ce4c8aecd9d1865736d8fb1de898e33ede17
22ee7d298ad8e324184b7ca96223af6572ededab27e409f94ce981f275a3edcb359e3afbdb80e2bfb9527d655d38914b6f9efe6d216c633cfe1258a7ccc6ceef
f069004216f1e35ee8e3b40840d4ffc46ccdfa2bfb4f5bd2c0c7b361c7ec291a148c40aa8a155de781a6fc45a89151f14f4a61b62daae81c3c84b9e3419f0aec
e87a4de59d98102fd85be5b4b53a3bd1e452e0c64af143f5cb45a3d8e9023b9895a951a0b4bcaeb39910936a325da05e3cf4af2e273f22763bfb1b20695612f7
7ec10bf6df7cd1c076e42eec3b09169d01a63ccb1555498d4e70d8124101310d0f3c76c505c1afd79dd9180470f84a8bf4bc28db6f81c7c836aab7b3c0d9f96f
8e66ac1b74d70c0c8ee6e67f55371f2d72ededab27e409f94ce981f275a3edcb359e3afbdb80e2bfb9527d655d38914b6f9efe6d216c633cfe1258a7ccc6ceef
2530faa3a2e0eeb6b5214843b216df4e8579b12083e247056405beb41fdf9b85d0efb4d159fb61ab8e5a36bdcb614e0eddc516c043c2e189cdb26440449a3024
8166559cd96773e9a42ca6d3f4c4fb6f8579b12083e247056405beb41fdf9b85d0efb4d159fb61ab8e5a36bdcb614e0eddc516c043c2e189cdb26440449a3024
536dde147522df192985212b13a0b33772ededab27e409f94ce981f275a3edcb359e3afbdb80e2bfb9527d655d38914b6f9efe6d216c633cfe1258a7ccc6ceef
68ea5c6e39b6bf8cd06650aa87451ba7d1b116da19e27f67e06b1cdf58787bfc255cae592e0196f14958ad2250c82f6864dd8ea929d6a609702244764e2361d8
82ea2eda4bbb72042fcfb9b4cd6c50f2db7bde9edb03f93f2d7d3b5687d690ee95e788d96722731074aa6aed4cd56b3d6d2050cc6ec507c3c935bbd49d6058f3
e46f696e7b35c3428227c55af5ad6289dfb24ec07b7f0050911bd37e3e0b354b64a053d18026ea9736b3c05468b14a3427227049ced1c0673bf282965cf7942a
e856171bb051a4a80460b50ea65b6787603b8ffcbc571c2c4a61b7787a36dbb6557bf36159a4559a90d504aec7aa5b51d0f70c235f6eabf066af0845c98a1a30
9e7b11cd8cad6fdd1df0bdbea3e8bd2759e0726d567326a42d8a3718428abf4e334b1310fdc7b159192119f8ac88c8e2b8dcd0b2b90530a1575e2f26c73d77dc
2090c25661892201eb9321c29713980abed50f64a0ce7f81ddb081c5f4b5af8a64a053d18026ea9736b3c05468b14a347c7086b769ada1850d3abc027fdd3049
8d90142b46ba4202d4a0ee5f51346f4f4d689c7f536b8147741739fb86aa831590a9f754f792b161ea1ce0213c4d3d96cb427465b5b559b939f39ada7a0d3cdd
a4b17b612c65d8a836da8bbbf8310a71f89110a117ae8b50265e3882d1a9db7fe6b6b13f7b9b4d728fda5eaa8cdf97bb503031e287e052726e38b2012baa5f12
$CDNENCFINISH_ADV2
.ends TPS_INT 
*$
.subckt CTRLLOG LOOPCMP PWMINT SYNC DCMCMP DCMp DCMr ZCOMP EN RAMPOK ENDCM TRIDR PWMEXT TRIRAMP DCMCMPA
+ OVP_HSD_RE OVP NEG_PK
$CDNENCSTART_ADV2
17f62b1fb318c25603aeb85644ae98a5d179ef807807791f6459efacb9d7ffc37a831b146dc0f06bb1ef275619162e6d8f7ad0dc708bf15ae1a1d5bd0ae623b2
97d3dfee6b9d3c9c720ee44ae6eacb92f1bfb1d26e30b6b664605209553ad341bbbaeae5ab7f511ab72817a4bcd1bbbc4f4a61b62daae81c3c84b9e3419f0aec
4f40bc9a0008bc6ff2c645645814ad43776e8d03d177d67b589cadb2b0cb8e919ec19ba9fe7fc55e11351809f702e903cd319129ec6ba2d3b881f5517dc9cc9e
abb394749f2c61905516acc96990d0d1d1b116da19e27f67e06b1cdf58787bfc255cae592e0196f14958ad2250c82f6864dd8ea929d6a609702244764e2361d8
a585bd2baea70a6fb60913642a4400e5fa101fe0a7c8bd4d4428b1db3b7943fd245650841cc9e6801b95e2cab7b5d9c6f0d02c41e599c21a9aa02e0d3b285390
4f40bc9a0008bc6ff2c645645814ad43e747ad1c137ce6837394fe4b9883e3f69ec19ba9fe7fc55e11351809f702e903cd319129ec6ba2d3b881f5517dc9cc9e
abb394749f2c61905516acc96990d0d1d1b116da19e27f67e06b1cdf58787bfc255cae592e0196f14958ad2250c82f6864dd8ea929d6a609702244764e2361d8
9765579f04c84aeb3612128bc49f313cdfb6279e2f205302d0db08d5675ced5aa11261ab412ad495f995ad3053508f92ae01f2200a2eb1c980cb8c85a646fe3c
95de3d869fdfdc17a2c2b7adde5b9356ad5ce027f028fa83767ebc9598ea781fdaab804ac3b07e2246114d53d3dba89a33695547337692ec1a20639d5e1d63d5
6e9caeb6c4999d00f20aa004fa5f58cc50ad4e55a8f23e0ea6ce7fbd66145ed3c5bdfea450fd30b4a985f20f3e8e1f1edc68a2c5937d617fcca8a0d02e5f0194
88b172e0d25e90a5c35b5f00783ca62eff97852a722fc7f25c39e038f27200dead5ce027f028fa83767ebc9598ea781f0d5093b188e32154a6ec55a606104c9c
0c695f9133a5426a62e520231a5c2f0590a9f754f792b161ea1ce0213c4d3d96e368e9ed84936dc7a11c3ec9853fa8293aa1683a9ea6e6330699e2e6adcb0401
afa3cd9e062939963d9f9225142ea8717d361e720aad4a15080278120077b61d7f0a945b95db863cca2303ff910e984f0facccc28e1acac46dc91ab7e38432e0
8e07277f955700d41c77c6b1d1039b75c67a88457881db62ae1be6d191d809be792b527a1583fca32dc4a02ad34dd5feb46e9dd9a0f3a4beabd795a5f0491d34
b98fa1b4e5fce36f86093a57be7660908f26bdeb9c9d9b4b576fb6989327536a47c2234b0a69ef047439240b1dff40a90d78be1ecf1f2d2dc25fa36bab6d2701
21e7b0077f876c7a073ae939e31d0842792b527a1583fca32dc4a02ad34dd5fee8e16edfac3561c8cdb649ec63d3bbbf29ba7433c81a69ee311fb9a530145cad
3fa5ec01cb900139bc4838e877cc4bdcd1b116da19e27f67e06b1cdf58787bfc255cae592e0196f14958ad2250c82f6864dd8ea929d6a609702244764e2361d8
fa6a5e8df1dd30fbd18fad1fed810b0e3afc4afc36edf73d00986f9753cdc5d82fa88028ef7e48360ccc1f16cf15f8bd5dffa9b2f3c7f04ccdd628b839b4431e
6472917add76ad2c85d016824243690ce9f80a89651605774f527a35eab3bb87268624cdd0e7e340986402341275718dafa3676951099bb564efdaeed48fcba4
68c3b6fecefd659e7ed4a0ba555c711ed8dbc98981e453370717c4f81332fc8d1ebad9d7684acbf2aa2e6a0e546b86527a54b4a62a9eb7107154f5a69bc004fd
1fcdb0bfaefc06fc37b11516a344a6521d17273307301815118fca68d2344423657711fc124bb9adf0b21d6cfa51b4fbae24fb896fc07b5046ccce993da0b74f
4e572070b5fb858eb2f426d88cb680b29903676e2f7b4de5b56408d18b5c3e7e231ead0b5bc672b2ead10d9f2b634f96f6863ec12cdb1fbc50012263bc0761a4
2fa88028ef7e48360ccc1f16cf15f8bd3071f0e69499b91bf627729fe48397cf0cb97b2e4baa064fb435908472031f8ba190b7f80e580481281e04db3001ee10
97310ce8302d337269c43fec18dd03fefb04deaf8bd6d37300233099af2746fadbeca183b3ba1c57e8fd9f88779b1d9570fd48de88aec33907561fdd3baecc91
c67a88457881db62ae1be6d191d809be792b527a1583fca32dc4a02ad34dd5fee8e16edfac3561c8cdb649ec63d3bbbf29ba7433c81a69ee311fb9a530145cad
36fffbaa58cfa823fba2186236ab667bdaa37c89ea09ffda1ae9b78a50a82dcb58035fbaa3cbc5d069a503c23a28b20094012c5c7f1bf0d854fb6e1835c28b0b
78a520fe54f3cf29747592bdbfc654d990a9f754f792b161ea1ce0213c4d3d96e368e9ed84936dc7a11c3ec9853fa8293aa1683a9ea6e6330699e2e6adcb0401
38f93c6d31bb79cd4cece7e3907fa52969a9dd1ec5d85d15df9f6b57a57c4f88383807ccefd1ff22aa4c8e6b776eef5cd97ae6e7d79e58df0208875218c303cd
649bfe4bb6e4f8704a5cd0f5aa61fa5dd8dbc98981e453370717c4f81332fc8d1ebad9d7684acbf2aa2e6a0e546b86527a54b4a62a9eb7107154f5a69bc004fd
1fcdb0bfaefc06fc37b11516a344a6521d17273307301815118fca68d2344423657711fc124bb9adf0b21d6cfa51b4fbae24fb896fc07b5046ccce993da0b74f
2c54b8d4d9ad8eaff734c43c75a863f40fcfef823ab6ed17c5f02d5fb19edd59c83c5358dd2ab407de761054fc498937b6dee7d1b406db17f52b73cc13617e73
dbeca183b3ba1c57e8fd9f88779b1d95648bfcc8a32522591c4e0b9cc5350af6557bf36159a4559a90d504aec7aa5b51d0f70c235f6eabf066af0845c98a1a30
7469a1f36181ca22c646338617c8e5d645a511b25c4925c8dc9c8e5c13c2257bafd4c7f3da5a8e3c2d119daf15b310f67bec006570d596f291400a9602d2e95f
4102f19e975dbcbd4a42e5ca8db12d61d1b116da19e27f67e06b1cdf58787bfc255cae592e0196f14958ad2250c82f6864dd8ea929d6a609702244764e2361d8
eb9ca527d5612b1a9abe65572aed255d89c23d302961c922d08eed09061208f65aa47ebf01878ffb19bcf3270f64b375ae11e882801542fdee2c027238e946b5
c4b19534cd9df3fd9668f9e17cbe9df6c67a88457881db62ae1be6d191d809be792b527a1583fca32dc4a02ad34dd5feb46e9dd9a0f3a4beabd795a5f0491d34
4f40857c4a677958626d85ce0ae8a7673afc4afc36edf73d00986f9753cdc5d82fa88028ef7e48360ccc1f16cf15f8bd5dffa9b2f3c7f04ccdd628b839b4431e
6472917add76ad2c85d016824243690ce9f80a89651605774f527a35eab3bb87268624cdd0e7e340986402341275718dafa3676951099bb564efdaeed48fcba4
44fb9bd2d958622fbf6f1bc91701bdcd61046454124f8b43dffb0a6ec52dc57c7f0a945b95db863cca2303ff910e984f0facccc28e1acac46dc91ab7e38432e0
8e07277f955700d41c77c6b1d1039b75c67a88457881db62ae1be6d191d809be792b527a1583fca32dc4a02ad34dd5feb46e9dd9a0f3a4beabd795a5f0491d34
a7bdaef97a3a01e59c41d0eb995711c2c4265db847b75e253f6076c931a947059a8ce326f45b0db9dad4f274cf72c8ea74068da8be66bca97f166aa37e1f109f
a3a9ce96767b7aaebbea4dd8362ff503daab804ac3b07e2246114d53d3dba89a71caf120339b6d500fdc960bdaf500b2e034cb7e7e7d9463e8c3320469393744
070f41a2efaf8597a9ce91671277f1fc2c2ead2894d75627445abadc7d60ab66835100d581f580530dc7271d9f0a715f01940cbfbe5b78c9013300a2cb9bc5d7
bd416971b190c2b92b201ef36f98f458557bf36159a4559a90d504aec7aa5b51434529be43acf0bbcfea4fc06e7c43b3e47df3017d28043a5dc5800e2f93324b
e7766fe43fd1f12ca0063696ba06a72ddbc2eb98dbe6cf3215edc7ffad567823eae120e21a7b8212f995bea9ed65dd2d0e3252940cc15fee77b95a2c1995bb08
e45023c91df040de8841ffded4def998728823e544f79967f26993df1595ef4017b3c938fcdd7c89e901a7a83c8fd354dfac7b5b5ebee7febcf582216507f289
68804452be1c5be9baa2524c0e2ced926979de330f8612453710acd7cdcddd5dd1b116da19e27f67e06b1cdf58787bfc1fc6c1b976347e8063073390d01074e8
542d76d9cc17ed9c2c59c761180a940c321ef5a192d0d73ba9146d172305d385e17d477793f7b2a0416529a4e25110707a54b4a62a9eb7107154f5a69bc004fd
1fcdb0bfaefc06fc37b11516a344a6527e57426f5f0db6a072ca41e0aac63a340cb97b2e4baa064fb435908472031f8ba190b7f80e580481281e04db3001ee10
4aa0da9a383722bc5940ee98625414a6d8dbc98981e453370717c4f81332fc8d1ebad9d7684acbf2aa2e6a0e546b86527a54b4a62a9eb7107154f5a69bc004fd
1fcdb0bfaefc06fc37b11516a344a6521d17273307301815118fca68d2344423657711fc124bb9adf0b21d6cfa51b4fbae24fb896fc07b5046ccce993da0b74f
31faefbef6459977494a10da86d3da9aa3695d08f8550c7a190aeaa5fb37e2c68009aa53e586a8be2298895e8b1c271759dc634feda8c818bc301584fad81db2
22f315950ea606d65ae24f69b744ad92a3a9ce96767b7aaebbea4dd8362ff503daab804ac3b07e2246114d53d3dba89a33695547337692ec1a20639d5e1d63d5
12c9e5d23bf0a227232efb3ec35fa2e7da348e77a89aacf73432245b786436cf0a46eec38a8929f4db1e298807d99ad95ce89155d82641fa700c10d0e98ae31b
6849e58b8d136deca7c8c43de60a6c8c862ca1190885c1cb0ab9cb36cb3c0107856b2da3bf0f03decbabe51cf476e88642d39cfa5bfca92bfe7b1995648e6c0b
fa74d2f50a0774cb4f28dd1366d05187096ce0453461625fea6c1c407939ae784a22ed90832b2161d9abf8247bdcb3ee8ba89ad98ae79bffc834681ad02f5e3b
640072abbe5c52c8b7c3c6f066fe5acb8579b12083e247056405beb41fdf9b85d0efb4d159fb61ab8e5a36bdcb614e0eddc516c043c2e189cdb26440449a3024
89f43be975b8269a700704860951111dc5cabb1e41fa0ae73b20a84b2ebeb9604a22ed90832b2161d9abf8247bdcb3ee8ba89ad98ae79bffc834681ad02f5e3b
640072abbe5c52c8b7c3c6f066fe5acb8579b12083e247056405beb41fdf9b85d0efb4d159fb61ab8e5a36bdcb614e0eddc516c043c2e189cdb26440449a3024
fb05e1988ad36b8a0c5e3ce9704e70563afc4afc36edf73d00986f9753cdc5d82fa88028ef7e48360ccc1f16cf15f8bd5dffa9b2f3c7f04ccdd628b839b4431e
6472917add76ad2c85d016824243690ce9f80a89651605774f527a35eab3bb87268624cdd0e7e340986402341275718dafa3676951099bb564efdaeed48fcba4
df658600ac930e8daecae229a44a7a2357aadcfb9165361a05e641a17d9f064e5edd4e06ccfbb59d02d91b15cb8ffc06af9a4a6301dfeb8db0f5d2ee18c24db3
39d386e776842bfe028adf31a6eb74003ecf1492ef3882748de85cd4396c61a2e9f80a89651605774f527a35eab3bb87b92fc8fb0227bbc2090df19ad6e9f78c
2feb03ac8020ae9f96dd61f16896e9493e068bfb3beef835ff0b546ffdd6fab3964ade9abc361d147e4c1cb320189820168902cdb8fa6fcf3ed09c0f98316c97
1ac4b315f090f6e10d1595a65540afbd232cbfe65fe8faecb9f235374e65c0f57563f90f3e61ae7b1a71ef7e7f697e3201d6427f5954146a9fe42ab5babacf37
45d3de842dccda165d3ca710fa4e373e0c90a3ec2557b1d16fc85d7079af5e7e5aa47ebf01878ffb19bcf3270f64b375ae11e882801542fdee2c027238e946b5
c4b19534cd9df3fd9668f9e17cbe9df6c67a88457881db62ae1be6d191d809be792b527a1583fca32dc4a02ad34dd5feb46e9dd9a0f3a4beabd795a5f0491d34
286d75392539b6fefb7395864347613de1705a3fd214ddaabb7119ef785ffda3d9f9d02ba595c326c3f937fc1922104f3d1c5197e8b5a3b047ef8f7b177d6968
3e794cf27c7eac1b5666653b7b7f5e08a88b2a8f758fe94dc61e0770ee2570431770676fd8f864cb40a7958244a4f071e625f91f0841cbc8551d2133e6e0e783
3b34c176919ee202604faf3201a6a161d322f15e3f97ecf232a9321b2104df3d862ca1190885c1cb0ab9cb36cb3c010717410c29a6becaeba218fa11be2ec5b6
e279a617a6e6ec4dc025696ef9908c3f920f49fbee934a42e06c81e2877f0701cb64e96c7dcd808f8fcf76401fe7c6a6e625f91f0841cbc8551d2133e6e0e783
3b34c176919ee202604faf3201a6a161d322f15e3f97ecf232a9321b2104df3d862ca1190885c1cb0ab9cb36cb3c010717410c29a6becaeba218fa11be2ec5b6
c6d473f3dcc520c12fef51e84e6dde3d3e068bfb3beef835ff0b546ffdd6fab3964ade9abc361d147e4c1cb320189820168902cdb8fa6fcf3ed09c0f98316c97
1ac4b315f090f6e10d1595a65540afbd232cbfe65fe8faecb9f235374e65c0f57563f90f3e61ae7b1a71ef7e7f697e3201d6427f5954146a9fe42ab5babacf37
1332100fd9eaa69ad3724809e4949574557bf36159a4559a90d504aec7aa5b51434529be43acf0bbcfea4fc06e7c43b3e47df3017d28043a5dc5800e2f93324b
$CDNENCFINISH_ADV2
.ends CTRLLOG
*$
.subckt MONO20n OUT IN
$CDNENCSTART_ADV2
17f62b1fb318c25603aeb85644ae98a5d179ef807807791f6459efacb9d7ffc37a831b146dc0f06bb1ef275619162e6d8f7ad0dc708bf15ae1a1d5bd0ae623b2
94172a2e2a82f035e630bd99326d0e97584b4580c3c881d2771c0946e80aa7323b34c176919ee202604faf3201a6a1613c7bc73fcef527175363c89951545721
606ad0227e673e7db8ac0bff5ef3d3b4792b527a1583fca32dc4a02ad34dd5fee8e16edfac3561c8cdb649ec63d3bbbf29ba7433c81a69ee311fb9a530145cad
0db30dd74e7a9bd5ae83fde9399a3e6a7794e474d19468db1a9dba1fac6235988f9162e7a3d97c8a8097b1e6ace3e8d9312861969e12eabce46bd7263acaeec7
bc08ecfd739a2e6e1590cef0782b1adfdaab804ac3b07e2246114d53d3dba89a71caf120339b6d500fdc960bdaf500b2e034cb7e7e7d9463e8c3320469393744
608156a0a8107676addaa1b8aef35c6991d5803384fbe1b3a08ace92c91489fa442f1dc9461d4ea633f51111f4dfc81d0d78be1ecf1f2d2dc25fa36bab6d2701
230273eb9387284592e140cbcda04d1f1d17273307301815118fca68d2344423657711fc124bb9adf0b21d6cfa51b4fbae24fb896fc07b5046ccce993da0b74f
ad331e3fb1c44f5096f1b4051a3e743c9bfe0fbce1feafcb6a5bc0f281db92c377344bacd2ca5f8cce01c447ae6a183253b61aac5af007e92d2cd93c0a7f163b
0ab3cd42dea3651752bad44b570dfae817b3c938fcdd7c89e901a7a83c8fd35453ff793fe68d75052a5fddf77ce468bf348e4398988ab443d0a5ed1dc40ea72f
$CDNENCFINISH_ADV2
.ends MONO20n
*$
.subckt UDCNT_7_15 UP CLK EN TOP
$CDNENCSTART_ADV2
17f62b1fb318c25603aeb85644ae98a5d179ef807807791f6459efacb9d7ffc37a831b146dc0f06bb1ef275619162e6d8f7ad0dc708bf15ae1a1d5bd0ae623b2
b9bc38203389211d10788ec4887385b54bd2bd9d66658255e74bf2f01788ee1f137b53f5178978964b8b88c0589db55f0e3252940cc15fee77b95a2c1995bb08
79d6d39887561d431b6e65309a048d8f44e2189ef18af76c9f9e2c574bc152009ce650a51291332deb722a675936d9934066476f98a91a60a88fd7219f8052bb
c0018c292edc87a93fcbe0d467eb52651f121e0a0e376307ba5d95080ed3f574012d717c1e5a051c940ee84dadf573011b30ef67167651dc9c088030d33b52ab
3e58788c717b86fa8287f00345aea7d9abb21ea79dd7271f1d0cdc690c8bfac7e9f80a89651605774f527a35eab3bb87b92fc8fb0227bbc2090df19ad6e9f78c
211f5fac58355c629b3c88152ef03907f3827256415ef4fcd32f6cb02506d8fe5aa47ebf01878ffb19bcf3270f64b375ae11e882801542fdee2c027238e946b5
c4b19534cd9df3fd9668f9e17cbe9df6bf66983e794b5c4663b4c61c608395db557bf36159a4559a90d504aec7aa5b51d0f70c235f6eabf066af0845c98a1a30
b2da8ee70157d258dcf5a46f9b29b96e41ebe1bf756166a016c7398cc7b203ac7f0a945b95db863cca2303ff910e984f0facccc28e1acac46dc91ab7e38432e0
337580137fde2a13a88b2a1e44c6a617dc0f90b12b8f0c1e0dce4b70beec52728579b12083e247056405beb41fdf9b85125f7392cdcc0587469eade049efde1f
627ab5f64d5aba3e317f94d36fb5d0d1e16e0528fba699808395064ff7385e56eae120e21a7b8212f995bea9ed65dd2d0e3252940cc15fee77b95a2c1995bb08
9883a696b3c9f9565f5d58e809c2f9807e57426f5f0db6a072ca41e0aac63a340cb97b2e4baa064fb435908472031f8ba190b7f80e580481281e04db3001ee10
4b1a45af09e44034478aee93a4bbbb45f85465cac14c6027ebef559d8125f6f5eae120e21a7b8212f995bea9ed65dd2d0e3252940cc15fee77b95a2c1995bb08
9883a696b3c9f9565f5d58e809c2f980dcd6a9b37d32a3669da8dcd11f69027bd1b116da19e27f67e06b1cdf58787bfc1fc6c1b976347e8063073390d01074e8
85b41021817dee085593b96d5d46a9b69da0d2ecf2ac6a6d698f69c88e72ab54e17d477793f7b2a0416529a4e25110707a54b4a62a9eb7107154f5a69bc004fd
2f30cf359012dd15a363e87623580d98bb92f7ac43a31465ac076038d70a331d90a9f754f792b161ea1ce0213c4d3d96cb427465b5b559b939f39ada7a0d3cdd
6f6266368c4dd532730c48298c50a24d00806e7ab40aa158cbe7ce4954e3b527b36eb56a2d05e04f7d0cb169409ab94abf2a989a2afc1004e4df51ce62646a9b
a7b7bfbd14990d2a062155765a90f079c460121a489a68815ad3db5620e7b1b794e721815e93ad5eea4e77ca0fe328a7ab8fc2894338bdd78e9f8a36841babc6
49fd96ee3d74a6cf1f8afa1a809ddb564bd2bd9d66658255e74bf2f01788ee1f137b53f5178978964b8b88c0589db55f0e3252940cc15fee77b95a2c1995bb08
79d6d39887561d431b6e65309a048d8f44e2189ef18af76c9f9e2c574bc152009ce650a51291332deb722a675936d9934066476f98a91a60a88fd7219f8052bb
315bc0ec7568926d6e901fb7cb202c495744a572878c7d423ecedfb485035694012d717c1e5a051c940ee84dadf573011b30ef67167651dc9c088030d33b52ab
3e58788c717b86fa8287f00345aea7d9abb21ea79dd7271f1d0cdc690c8bfac7e9f80a89651605774f527a35eab3bb87b92fc8fb0227bbc2090df19ad6e9f78c
f499deaf65abdec3b810aade27a88750c09f33d3005e65f6a7b2573e0230159eafd4c7f3da5a8e3c2d119daf15b310f67bec006570d596f291400a9602d2e95f
4102f19e975dbcbd4a42e5ca8db12d61d1b116da19e27f67e06b1cdf58787bfc255cae592e0196f14958ad2250c82f6864dd8ea929d6a609702244764e2361d8
f20fe5393c9474b5addb595964ad90937a6da009b1c719b46d54cfc1234f47ce36d1ab94a06ae1dc774d5f3257b9e1f19b6648b80345f58aaef4a2c688455fc9
72a188d3c409b72f60efabe67c565ab4ebe02354f76ff8d22d78346fa74600670cb97b2e4baa064fb435908472031f8ba190b7f80e580481281e04db3001ee10
4a1cee02d15f0c80d4607f0e177b6ecada348e77a89aacf73432245b786436cf0a46eec38a8929f4db1e298807d99ad95ce89155d82641fa700c10d0e98ae31b
dc0f90b12b8f0c1e0dce4b70beec52728579b12083e247056405beb41fdf9b85d0efb4d159fb61ab8e5a36bdcb614e0eddc516c043c2e189cdb26440449a3024
732c84a7209ac2243c4a8a49fbc6d11c6479dee35fe02311bc0771f1269423de36d1ab94a06ae1dc774d5f3257b9e1f19b6648b80345f58aaef4a2c688455fc9
72a188d3c409b72f60efabe67c565ab4ebe02354f76ff8d22d78346fa74600670cb97b2e4baa064fb435908472031f8ba190b7f80e580481281e04db3001ee10
2fbeac8d6a1f75c2fe5a2256adc1fe62d8dbc98981e453370717c4f81332fc8d1ebad9d7684acbf2aa2e6a0e546b86527a54b4a62a9eb7107154f5a69bc004fd
1fcdb0bfaefc06fc37b11516a344a6521d17273307301815118fca68d2344423657711fc124bb9adf0b21d6cfa51b4fbae24fb896fc07b5046ccce993da0b74f
6e559478b85e4b228d8fb94e8be3861ec06415e58a11bdd212073da8ee66f6ecf0de156265aaaf1ea64d776a9f5cc74e1023287508a499a8f3a6782a13c6bccd
e388c60aa9a280391c9c0354d64217e921e7b0077f876c7a073ae939e31d0842792b527a1583fca32dc4a02ad34dd5feb46e9dd9a0f3a4beabd795a5f0491d34
3e097d0fb2180201601bd08b4b8b3990a43a7fb5771e519041a048dbfa47f60b7f0a945b95db863cca2303ff910e984f0facccc28e1acac46dc91ab7e38432e0
337580137fde2a13a88b2a1e44c6a617dc0f90b12b8f0c1e0dce4b70beec52728579b12083e247056405beb41fdf9b85125f7392cdcc0587469eade049efde1f
faf6b34b98d31839770a9758369deb607ce2f67a5d175f0bade57872750d8dd37f0a945b95db863cca2303ff910e984f0facccc28e1acac46dc91ab7e38432e0
337580137fde2a13a88b2a1e44c6a617dc0f90b12b8f0c1e0dce4b70beec52728579b12083e247056405beb41fdf9b85125f7392cdcc0587469eade049efde1f
ff74f09e5a5c395a169a6b2e4e65ea4eaef99dee1b3f3ca1dd1b8e28faa603b503605645a9c9124853cb24a9f0bbe3c2deb89386fea999edadea4d1da9d1fd41
540017cf54eb1eea472d2215f9ae812f81fdaccfeabfd7477ff6acfc70b7ef1d72ededab27e409f94ce981f275a3edcbdc7aacaf53e7d8d1d9e3ae43ac46381f
8601ec76778af71d87ff9a91b606e765bb013b61e5dda0390e7977ad9017eafbeae120e21a7b8212f995bea9ed65dd2d0e3252940cc15fee77b95a2c1995bb08
9883a696b3c9f9565f5d58e809c2f980dcd6a9b37d32a3669da8dcd11f69027bd1b116da19e27f67e06b1cdf58787bfc1fc6c1b976347e8063073390d01074e8
bc468041ddb0249612f5a981dcf1d3204bd2bd9d66658255e74bf2f01788ee1f137b53f5178978964b8b88c0589db55f0e3252940cc15fee77b95a2c1995bb08
79d6d39887561d431b6e65309a048d8f44e2189ef18af76c9f9e2c574bc152009ce650a51291332deb722a675936d9934066476f98a91a60a88fd7219f8052bb
c7a618644a635698628257302efe41f8c44db5767435ab7844074a9e41634a9d012d717c1e5a051c940ee84dadf573011b30ef67167651dc9c088030d33b52ab
3e58788c717b86fa8287f00345aea7d9abb21ea79dd7271f1d0cdc690c8bfac7e9f80a89651605774f527a35eab3bb87b92fc8fb0227bbc2090df19ad6e9f78c
e9396b4e19d11e143d350f261059a65214841b0cbab3dce2d079df8994a1b0727f0a945b95db863cca2303ff910e984f0facccc28e1acac46dc91ab7e38432e0
337580137fde2a13a88b2a1e44c6a617dc0f90b12b8f0c1e0dce4b70beec52728579b12083e247056405beb41fdf9b85125f7392cdcc0587469eade049efde1f
296e15acddec49377b351559b5483c5a6479dee35fe02311bc0771f1269423de36d1ab94a06ae1dc774d5f3257b9e1f19b6648b80345f58aaef4a2c688455fc9
72a188d3c409b72f60efabe67c565ab4ebe02354f76ff8d22d78346fa74600670cb97b2e4baa064fb435908472031f8ba190b7f80e580481281e04db3001ee10
76cfd3ddbde7c21d597f774313a17ab3c09def0a9eade3567a09483baaa88cf8a11261ab412ad495f995ad3053508f92ae01f2200a2eb1c980cb8c85a646fe3c
95de3d869fdfdc17a2c2b7adde5b93569cfbbfcc093aa82b5c3865155e18733117b3c938fcdd7c89e901a7a83c8fd354dfac7b5b5ebee7febcf582216507f289
9aea6790dc64623d974ca0c8107a1afa6479dee35fe02311bc0771f1269423de36d1ab94a06ae1dc774d5f3257b9e1f19b6648b80345f58aaef4a2c688455fc9
72a188d3c409b72f60efabe67c565ab4ebe02354f76ff8d22d78346fa74600670cb97b2e4baa064fb435908472031f8ba190b7f80e580481281e04db3001ee10
d45b22b2671284931548ed90c352732fbf04b1e725f27ba89f94bdb5d8145f0deae120e21a7b8212f995bea9ed65dd2d0e3252940cc15fee77b95a2c1995bb08
9883a696b3c9f9565f5d58e809c2f980dcd6a9b37d32a3669da8dcd11f69027bd1b116da19e27f67e06b1cdf58787bfc1fc6c1b976347e8063073390d01074e8
3a76fda47372d8340c2ecce183f5f3d2539f47d5b3286e13908db391ec5a176beae120e21a7b8212f995bea9ed65dd2d0e3252940cc15fee77b95a2c1995bb08
9883a696b3c9f9565f5d58e809c2f980dcd6a9b37d32a3669da8dcd11f69027bd1b116da19e27f67e06b1cdf58787bfc1fc6c1b976347e8063073390d01074e8
7edcf0c612566931b925c1239f10bb626c249b40bfe524b46b5e6250d08e366be17d477793f7b2a0416529a4e25110707a54b4a62a9eb7107154f5a69bc004fd
2f30cf359012dd15a363e87623580d98bb92f7ac43a31465ac076038d70a331d90a9f754f792b161ea1ce0213c4d3d96cb427465b5b559b939f39ada7a0d3cdd
a91e285ff04485a98214f1b4ddad0bc78f5d559c41ce275523caee05d515d1c036d1ab94a06ae1dc774d5f3257b9e1f19b6648b80345f58aaef4a2c688455fc9
72a188d3c409b72f60efabe67c565ab4ebe02354f76ff8d22d78346fa74600670cb97b2e4baa064fb435908472031f8ba190b7f80e580481281e04db3001ee10
72b75f68c179d548803bb1f96c9b840d49247c15e46fbe6993468a3915a942e87f0a945b95db863cca2303ff910e984f0facccc28e1acac46dc91ab7e38432e0
337580137fde2a13a88b2a1e44c6a617dc0f90b12b8f0c1e0dce4b70beec52728579b12083e247056405beb41fdf9b85125f7392cdcc0587469eade049efde1f
9ecf38086f865c7048c366e6649bfdcd9ba0e5bf9124a491beb6380a9a9611547f0a945b95db863cca2303ff910e984f0facccc28e1acac46dc91ab7e38432e0
337580137fde2a13a88b2a1e44c6a617dc0f90b12b8f0c1e0dce4b70beec52728579b12083e247056405beb41fdf9b85125f7392cdcc0587469eade049efde1f